OPT_V10/Two_days_MYC3/powerflow_results_t20.txt
Pandapower Network Debug Info
==================================================

BUS:
       vm_pu  va_degree      p_mw    q_mvar
0   0.992168   0.129384  0.000910  0.001185
1   0.987036   0.198193  0.001982  0.002122
2   0.982524   0.273644  0.002363  0.003254
3   0.988127   0.219169  0.002603  0.004330
4   0.999880   0.000968  0.010285  0.011937
5   0.999866   0.001016  0.011192  0.009280
6   0.999856   0.001069  0.012002  0.011247
7   0.999925   0.000686  0.000000  0.000000
8   0.999925   0.000692  0.000000  0.000000
9   1.000000   0.000000 -0.041511 -0.048475
10  1.000000   0.000007  0.000000  0.000000
--------------------------------------------------

LINE:
   p_from_mw  q_from_mvar   p_to_mw  q_to_mvar         pl_mw       ql_mvar  i_from_ka   i_to_ka      i_ka  vm_from_pu  va_from_degree  vm_to_pu  va_to_degree  loading_percent
0   0.041501     0.044475 -0.041498  -0.044472  3.619434e-06  2.822132e-06   0.002341  0.002341  0.002341    1.000000        0.000007  0.999925      0.000686         1.017985
1   0.033481     0.032465 -0.033480  -0.032464  1.682125e-06  1.311581e-06   0.001795  0.001795  0.001795    0.999925        0.000686  0.999880      0.000968         0.780513
2   0.008006     0.011007 -0.007920  -0.010939  8.665962e-05  6.756994e-05   0.019647  0.019647  0.019647    0.999925        0.000692  0.992168      0.129384         8.542140
3  -0.023194    -0.020527  0.023195   0.020527  3.318474e-07  2.587469e-07   0.001192  0.001192  0.001192    0.999866        0.001016  0.999880      0.000968         0.518398
4  -0.012002    -0.011247  0.012002   0.011247  1.323489e-07  1.031946e-07   0.000633  0.000633  0.000633    0.999856        0.001069  0.999866      0.001016         0.275294
5  -0.004361    -0.005388  0.004390   0.005411  2.917510e-05  2.274830e-05   0.010136  0.010136  0.010136    0.987036        0.198193  0.992168      0.129384         4.406913
6  -0.002603    -0.004330  0.002620   0.004344  1.745560e-05  1.361042e-05   0.007380  0.007380  0.007380    0.988127        0.219169  0.992168      0.129384         3.208731
7  -0.002363    -0.003254  0.002378   0.003266  1.515465e-05  1.181633e-05   0.005908  0.005908  0.005908    0.982524        0.273644  0.987036      0.198193         2.568607
--------------------------------------------------

TRAFO:
    p_hv_mw  q_hv_mvar   p_lv_mw  q_lv_mvar    pl_mw  ql_mvar   i_hv_ka   i_lv_ka  vm_hv_pu  va_hv_degree  vm_lv_pu  va_lv_degree  loading_percent
0  0.008016   0.012007 -0.008006  -0.011007  0.00001    0.001  0.000556  0.019647  0.999925      0.000686  0.999925      0.000692         0.144379
1  0.041511   0.048475 -0.041501  -0.044475  0.00001    0.004  0.000526  0.002341  1.000000      0.000000  1.000000      0.000007         0.159550
--------------------------------------------------
